LAMMPS (23 Jun 2022 - Update 3)
package omp 0
using multi-threaded neighbor list subroutines
units metal
atom_style charge
boundary p p p
read_data /tmp/lammps_mnoYnw/ZrO2_Bicrystal_SchellingPot/data.Sigma5-ZrO2
Reading data file ...
  triclinic box = (-10.2 -22.807894 -22.807894) to (10.2 22.807894 22.807894) with tilt (0 0 0)
  reading atoms ...
  3840 atoms
mass 1 16.00
mass 2 91.22
set type 1 charge -2.0
Setting atom values ...
  2560 settings made for charge
set type 2 charge 4.0
Setting atom values ...
  1280 settings made for charge
pair_style buck/coul/long 12.0
pair_coeff 1 1 9547.96 0.224 32.00
pair_coeff 1 2 1502.11 0.345 5.100
pair_coeff 2 2 0.0000 0.3760 0.0000
kspace_style pppm 1.0E-4
neighbor 1.0 bin
neigh_modify delay 10 every 2 check yes
pair_modify table 0
thermo 250
fix r1 all nve/limit 0.05
run 1000
PPPM initialization ...
  G vector (1/distance) = 0.26354923
  grid = 20 36 36
  stencil order = 5
  estimated absolute RMS force accuracy = 0.0012804394
  estimated relative force accuracy = 8.8921597e-05
  3d grid and FFT values/proc = 42025 25920
Generated 0 of 1 mixed pair_coeff terms from geometric mixing rule
Last active /omp style is kspace_style pppm/omp
  update every 2 steps, delay 10 steps, check yes
Step          Temp          E_pair         E_mol          TotEng         Press
0   0             -133417.04      0             -133417.04      332512.63
Loop time of 72.7589 on 1 procs for 1000 steps with 3840 atoms

unfix r1
minimize 1.0e-8 1.0e-8 1000 1000
PPPM initialization ...
  G vector (1/distance) = 0.26354923
  grid = 20 36 36
  stencil order = 5
  estimated absolute RMS force accuracy = 0.0012804394
  estimated relative force accuracy = 8.8921597e-05
  3d grid and FFT values/proc = 42025 25920
Generated 0 of 1 mixed pair_coeff terms from geometric mixing rule
Last active /omp style is kspace_style pppm/omp
Step          Temp          E_pair         E_mol          TotEng         Press
1000   2227.2468     -141731.97      0             -140626.75      177138.86
Loop time of 43.3864 on 1 procs for 228 steps with 3840 atoms

Minimization stats:
  Stopping criterion = energy tolerance
  Energy initial, next-to-last, final =
  Force two-norm initial, final = 272.39582 0.40286437
  Force max component initial, final = 12.343669 0.021017276
  Final line search alpha, max atom move = 0.67335092 0.014152002
  Iterations, force evaluations = 228 448

reset_timestep 0
thermo 1000
thermo_style custom step temp vol press density
velocity all create 2450 342819 dist gaussian mom yes
fix r1 all momentum 10 linear 1 1 1 angular
fix r2 all npt temp 2450 2450 1.0 tri 0.0 0.0 10.0 drag 1.5
compute c1 all rdf 150
fix r3 all ave/time 10 1 10 c_c1[*] file tmp.rdf mode vector
run 50000
PPPM initialization ...
  G vector (1/distance) = 0.26354923
  grid = 20 36 36
  stencil order = 5
  estimated absolute RMS force accuracy = 0.0012804394
  estimated relative force accuracy = 8.8921597e-05
  3d grid and FFT values/proc = 42025 25920
Generated 0 of 1 mixed pair_coeff terms from geometric mixing rule
Last active /omp style is kspace_style pppm/omp
  update every 2 steps, delay 10 steps, check yes
Step          Temp          Volume         Press         Density
0   2450           42448.321      99950.707      6.1699227
Averages over the last 26 of 51 rows, steps 25000 to 50000:
Temp Volume Press Density
2445.96 47374.9 185.329 5.5283
Loop time of 3721.05 on 1 procs for 50000 steps with 3840 atoms
